Circuit: * C:\Users\bhbo9\Desktop\FIlters\Sallen-Key.asc

Direct Newton iteration failed to find .op point.  (Use ".option noopiter" to skip.)
Starting Gmin stepping
Gmin = 10
Gmin = 1.07374
vernier = 0.5
vernier = 0.25
Gmin = 0.367941
vernier = 0.333333
Gmin = 0.178604
vernier = 0.444444
vernier = 0.592592
Gmin = 0.0546202
vernier = 0.790123
vernier = 1
Gmin = 0.00899121
vernier = 0.5
Gmin = 0.00167608
vernier = 0.666667
Gmin = 0.000414958
vernier = 0.888888
vernier = 1
Gmin = 5.09875e-005
Gmin = 5.47474e-006
Gmin = 5.87846e-007
vernier = 0.5
vernier = 0.25
vernier = 0.125
vernier = 0.0625
vernier = 0.03125
vernier = 0.015625
vernier = 0.0078125
vernier = 0.00390625
vernier = 0.00195313
Gmin = 5.87846e-007
vernier = 0.00260417
Gmin = 5.84508e-007
vernier = 0.00347222
vernier = 0.00462963
Gmin = 5.79081e-007
vernier = 0.00617283
vernier = 0.00823044
Gmin = 5.70587e-007
vernier = 0.0109739
Gmin = 5.57069e-007
vernier = 0.0146319
vernier = 0.0195092
Gmin = 5.35631e-007
vernier = 0.0260122
vernier = 0.034683
Gmin = 5.03369e-007
vernier = 0.046244
Gmin = 4.55176e-007
vernier = 0.0616586
vernier = 0.0308293
vernier = 0.0154146
vernier = 0.0205529
Gmin = 4.39146e-007
vernier = 0.0274038
Gmin = 4.1367e-007
vernier = 0.0365384
vernier = 0.0487178
vernier = 0.0243589
Gmin = 3.86685e-007
vernier = 0.0324786
Gmin = 3.59533e-007
vernier = 0.0433047
vernier = 0.0577396
Gmin = 3.1826e-007
vernier = 0.0769862
vernier = 0.0384931
vernier = 0.0513241
Gmin = 2.91072e-007
vernier = 0.0684321
vernier = 0.0342161
Gmin = 2.66206e-007
vernier = 0.0456214
vernier = 0.0608285
vernier = 0.0304143
Gmin = 2.44494e-007
vernier = 0.0152071
vernier = 0.00760356
vernier = 0.00380178
vernier = 0.00190089
vernier = 0.000950445
vernier = 0.000475223
Gmin = 0
Gmin stepping failed

Starting source stepping with srcstepmethod=0
Source Step = 3.0303%
vernier = 0.25
Source Step = 0.0177557%
Source Step = 0.0473485%
Source Step = 0.0769413%
Source Step = 0.106534%
Source Step = 0.136127%
Source Step = 0.16572%
vernier = 0.00146484
Source Step = 0.208629%
Source Step = 0.253018%
Source Step = 0.297408%
Source Step = 0.341797%
Source Step = 0.386186%
vernier = 0.00219727
Source Step = 0.448331%
Source Step = 0.514915%
Source Step = 0.581499%
Source Step = 0.648082%
Source Step = 0.714666%
vernier = 0.0032959
Source Step = 0.804554%
Source Step = 0.90443%
Source Step = 1.00431%
Source Step = 1.10418%
Source Step = 1.20406%
vernier = 0.00494385
Source Step = 1.3339%
Source Step = 1.48371%
Source Step = 1.63352%
Source Step = 1.78334%
Source Step = 1.93315%
vernier = 0.00741577
Source Step = 2.12042%
Source Step = 2.34514%
Source Step = 2.56986%
Source Step = 2.79458%
Source Step = 3.0193%
vernier = 0.0111237
Source Step = 3.28896%
Source Step = 3.62604%
Source Step = 3.96312%
Source Step = 4.3002%
Source Step = 4.63728%
vernier = 0.0166855
Source Step = 5.02493%
Source Step = 5.53055%
Source Step = 6.03617%
Source Step = 6.54179%
Source Step = 7.04741%
vernier = 0.0250282
Source Step = 7.60359%
Source Step = 8.36202%
Source Step = 9.12046%
Source Step = 9.87889%
Source Step = 10.6373%
vernier = 0.0375423
Source Step = 11.4337%
Source Step = 12.5713%
Source Step = 13.709%
Source Step = 14.8466%
Source Step = 15.9843%
Source Step = 17.1219%
vernier = 0.0563135
Source Step = 18.8284%
Source Step = 20.5348%
Source Step = 22.2413%
Source Step = 23.9478%
Source Step = 25.6543%
vernier = 0.0844703
Source Step = 28.1286%
Source Step = 30.6883%
Source Step = 33.248%
Source Step = 35.8078%
Source Step = 38.3675%
vernier = 0.126705
Source Step = 41.951%
Source Step = 45.7906%
Source Step = 49.6302%
Source Step = 53.4697%
Source Step = 57.3093%
vernier = 0.190058
Source Step = 62.4927%
Source Step = 68.252%
Source Step = 74.0114%
Source Step = 79.7707%
Source Step = 85.53%
vernier = 0.285087
Source Step = 93.0172%
Source Step = 97.34%
Source Step = 97.3738%
Source Step = 97.4075%
Source Step = 97.4413%
Source Step = 97.475%
Source Step = 97.5088%
Source Step = 97.5425%
Source Step = 97.5763%
Source Step = 97.61%
Source Step = 97.6438%
Source Step = 97.6775%
Source Step = 97.7112%
Source Step = 97.745%
vernier = 0.00167043
Source Step = 97.7821%
Source Step = 97.8327%
Source Step = 97.8834%
Source Step = 97.934%
Source Step = 97.9846%
vernier = 0.00250565
Source Step = 98.0377%
Source Step = 98.1137%
Source Step = 98.1896%
Source Step = 98.2655%
Source Step = 98.3415%
Source Step = 98.4174%
vernier = 0.00375847
Source Step = 98.5313%
Source Step = 98.6452%
Source Step = 98.7591%
Source Step = 98.873%
Source Step = 98.9869%
vernier = 0.00563771
Source Step = 99.152%
Source Step = 99.3228%
Source Step = 99.4937%
Source Step = 99.6645%
Source Step = 99.8354%
vernier = 0.00845657
Source stepping succeeded in finding the operating point.


Date: Thu Jul 01 12:47:00 2021
Total elapsed time: 0.778 seconds.

tnom = 27
temp = 27
method = modified trap
totiter = 42506
traniter = 26425
tranpoints = 10708
accept = 7793
rejected = 2915
matrix size = 41
fillins = 30
solver = Normal
Thread vector: 6.2/5.0[3] 1.7/1.3[3] 1.2/0.8[3] 0.2/0.8[1]  2592/500
Matrix Compiler1: 4.01 KB object code size  0.7/0.3/[0.2]
Matrix Compiler2: 4.45 KB object code size  0.3/0.5/[0.3]

