Circuit: * C:\Users\bhbo9\Documents\PROJECTS\BartoszOStrowski\Elektronika\Odprowadzanie do domu\Draft1.asc

Direct Newton iteration for .op point succeeded.

Date: Thu Sep 01 21:54:33 2022
Total elapsed time: 0.216 seconds.

tnom = 27
temp = 27
method = modified trap
totiter = 8707
traniter = 8697
tranpoints = 2934
accept = 2581
rejected = 353
matrix size = 47
fillins = 15
solver = Normal
Matrix Compiler1: 2.93 KB object code size  0.5/0.2/[0.2]
Matrix Compiler2: 3.59 KB object code size  0.2/0.3/[0.2]

