Circuit: * C:\Users\bhbo9\Documents\PROJECTS\BartoszOStrowski\Elektronika\Odprowadzanie do domu\Draft5.asc

Direct Newton iteration for .op point succeeded.

Date: Thu Oct 27 14:21:21 2022
Total elapsed time: 0.097 seconds.

tnom = 27
temp = 27
method = modified trap
totiter = 4318
traniter = 4283
tranpoints = 1710
accept = 1515
rejected = 195
matrix size = 33
fillins = 2
solver = Normal
Matrix Compiler1: 1.57 KB object code size  0.3/0.2/[0.2]
Matrix Compiler2: 2.47 KB object code size  0.2/0.3/[0.2]

