Circuit: * C:\Users\bhbo9\Documents\PROJECTS\BartoszOStrowski\Elektronika\Odprowadzanie do domu\Draft5.asc

Direct Newton iteration for .op point succeeded.

Date: Thu Nov 17 14:31:30 2022
Total elapsed time: 0.086 seconds.

tnom = 27
temp = 27
method = modified trap
totiter = 3724
traniter = 3700
tranpoints = 1556
accept = 1402
rejected = 154
matrix size = 16
fillins = 0
solver = Normal
Matrix Compiler1: 744 bytes object code size  0.2/0.1/[0.1]
Matrix Compiler2: off  [0.1]/0.1/0.1

