Circuit: * C:\Users\bhbo9\Documents\PROJECTS\BartoszOStrowski\Elektronika\Odprowadzanie do domu\Draft2.asc

Direct Newton iteration for .op point succeeded.

Date: Mon Jun 27 02:49:59 2022
Total elapsed time: 0.080 seconds.

tnom = 27
temp = 27
method = modified trap
totiter = 6874
traniter = 6860
tranpoints = 2810
accept = 2517
rejected = 293
matrix size = 14
fillins = 0
solver = Normal
Matrix Compiler1: 742 bytes object code size  0.2/0.1/[0.1]
Matrix Compiler2: off  [0.1]/0.1/0.1

