Circuit: * C:\Users\bhbo9\Documents\PROJECTS\BartoszOStrowski\Elektronika\Odprowadzanie do domu\Draft3.asc

Direct Newton iteration for .op point succeeded.

Date: Tue Aug 16 01:53:30 2022
Total elapsed time: 0.045 seconds.

tnom = 27
temp = 27
method = modified trap
totiter = 5844
traniter = 5837
tranpoints = 2228
accept = 1950
rejected = 278
matrix size = 24
fillins = 6
solver = Normal
Matrix Compiler1: 1.46 KB object code size  0.3/0.2/[0.1]
Matrix Compiler2: 1.91 KB object code size  0.1/0.2/[0.1]

