Circuit: * C:\Users\bhbo9\Documents\PROJECTS\BartoszOStrowski\Elektronika\Odprowadzanie do domu\Draft1.asc

WARNING: Node N004 is floating.

WARNING: Less than two connections to node N004.  This node is used by R3.
Direct Newton iteration for .op point succeeded.

Date: Wed Oct 19 18:35:17 2022
Total elapsed time: 0.083 seconds.

tnom = 27
temp = 27
method = modified trap
totiter = 5151
traniter = 5120
tranpoints = 1831
accept = 1689
rejected = 142
matrix size = 38
fillins = 5
solver = Normal
Matrix Compiler1: 2.28 KB object code size  0.4/0.2/[0.2]
Matrix Compiler2: 2.92 KB object code size  0.2/0.3/[0.1]

